<?xml version="1.0" encoding="UTF-8" ?>
<result orig='116.35506,39.92277' mid='116.36506,39.91277;116.37506,39.92077' dest='116.39751,39.90854'>
    <parameters>
        <orig>116.35506,39.92277</orig>
        <dest>116.39751,39.90854</dest>
        <mid>116.36506,39.91277;116.37506,39.92077</mid>
        <key></key>
        <width>600</width>
        <height>400</height>
        <style>0</style>
        <version></version>
        <sort></sort>
    </parameters>
    <routes count='20' time='0.0'>
        <item id='0'>
            <strguide>从阜成门内大街向西出发,沿阜成门内大街走400米并向西二环/月坛北桥方向进入阜成门桥,</strguide>
            <signage>西二环/月坛北桥</signage>
            <streetName>阜成门内大街</streetName>
            <nextStreetName>阜成门桥</nextStreetName>
            <tollStatus>0</tollStatus>
            <turnlatlon>116.35506,39.92249</turnlatlon>
        </item>
        <item id='1'>
            <strguide>沿阜成门桥盘桥向东走300米并右转到阜成门北大街,</strguide>
            <signage></signage>
            <streetName>阜成门桥</streetName>
            <nextStreetName>阜成门北大街</nextStreetName>
            <tollStatus>0</tollStatus>
            <turnlatlon>116.35092,39.92239</turnlatlon>
        </item>
        <item id='2'>
            <strguide>沿阜成门北大街走100米并从月坛北桥出口驶离并进入阜成门南大街,</strguide>
            <signage>月坛北桥出口</signage>
            <streetName>阜成门北大街</streetName>
            <nextStreetName>阜成门南大街</nextStreetName>
            <tollStatus>0</tollStatus>
            <turnlatlon>116.34977,39.92348</turnlatlon>
        </item>
        <item id='3'>
            <strguide>沿阜成门南大街走1.1公里并左转到广宁伯街,</strguide>
            <signage></signage>
            <streetName>阜成门南大街</streetName>
            <nextStreetName>广宁伯街</nextStreetName>
            <tollStatus>0</tollStatus>
            <turnlatlon>116.34981,39.92235</turnlatlon>
        </item>
        <item id='4'>
            <strguide>沿广宁伯街走0.6公里并向东直行到辟才胡同,</strguide>
            <signage></signage>
            <streetName>广宁伯街</streetName>
            <nextStreetName>辟才胡同</nextStreetName>
            <tollStatus>0</tollStatus>
            <turnlatlon>116.35024,39.9125</turnlatlon>
        </item>
        <item id='5'>
            <strguide>沿辟才胡同走0.8公里并右转到华远北街,</strguide>
            <signage></signage>
            <streetName>辟才胡同</streetName>
            <nextStreetName>华远北街</nextStreetName>
            <tollStatus>0</tollStatus>
            <turnlatlon>116.35721,39.91261</turnlatlon>
        </item>
        <item id='6'>
            <strguide>沿华远北街走90米并右转,</strguide>
            <signage></signage>
            <streetName>华远北街</streetName>
            <nextStreetName></nextStreetName>
            <tollStatus>0</tollStatus>
            <turnlatlon>116.36605,39.91314</turnlatlon>
        </item>
        <item id='7'>
            <strguide>走100米到达目的地。</strguide>
            <signage></signage>
            <streetName></streetName>
            <nextStreetName></nextStreetName>
            <tollStatus>0</tollStatus>
            <turnlatlon>116.36604,39.91235</turnlatlon>
        </item>
        <item id='8'>
            <strguide>向南出发,走100米并左转到华远北街,</strguide>
            <signage></signage>
            <streetName></streetName>
            <nextStreetName>华远北街</nextStreetName>
            <tollStatus>0</tollStatus>
            <turnlatlon>116.36507,39.91284</turnlatlon>
        </item>
        <item id='9'>
            <strguide>沿华远北街走80米并右转到辟才胡同,</strguide>
            <signage></signage>
            <streetName>华远北街</streetName>
            <nextStreetName>辟才胡同</nextStreetName>
            <tollStatus>0</tollStatus>
            <turnlatlon>116.36604,39.91235</turnlatlon>
        </item>
        <item id='10'>
            <strguide>沿辟才胡同走100米并左转到西单北大街,</strguide>
            <signage></signage>
            <streetName>辟才胡同</streetName>
            <nextStreetName>西单北大街</nextStreetName>
            <tollStatus>0</tollStatus>
            <turnlatlon>116.36605,39.91306</turnlatlon>
        </item>
        <item id='11'>
            <strguide>沿西单北大街走500米并向北直行到西四南大街,</strguide>
            <signage></signage>
            <streetName>西单北大街</streetName>
            <nextStreetName>西四南大街</nextStreetName>
            <tollStatus>0</tollStatus>
            <turnlatlon>116.36752,39.91329</turnlatlon>
        </item>
        <item id='12'>
            <strguide>沿西四南大街走400米并右转到西安门大街,</strguide>
            <signage></signage>
            <streetName>西四南大街</streetName>
            <nextStreetName>西安门大街</nextStreetName>
            <tollStatus>0</tollStatus>
            <turnlatlon>116.36744,39.91729</turnlatlon>
        </item>
        <item id='13'>
            <strguide>沿西安门大街走0.7公里并右转到府右街,</strguide>
            <signage></signage>
            <streetName>西安门大街</streetName>
            <nextStreetName>府右街</nextStreetName>
            <tollStatus>0</tollStatus>
            <turnlatlon>116.36731,39.92108</turnlatlon>
        </item>
        <item id='14'>
            <strguide>沿府右街走50米到达目的地。</strguide>
            <signage></signage>
            <streetName>府右街</streetName>
            <nextStreetName></nextStreetName>
            <tollStatus>0</tollStatus>
            <turnlatlon>116.37555,39.9212</turnlatlon>
        </item>
        <item id='15'>
            <strguide>从府右街向南出发,沿府右街走1.7公里并左转到西长安街,</strguide>
            <signage></signage>
            <streetName>府右街</streetName>
            <nextStreetName>西长安街</nextStreetName>
            <tollStatus>0</tollStatus>
            <turnlatlon>116.37553,39.92078</turnlatlon>
        </item>
        <item id='16'>
            <strguide>沿西长安街走1.3公里并向东直行到东长安街,</strguide>
            <signage></signage>
            <streetName>西长安街</streetName>
            <nextStreetName>东长安街</nextStreetName>
            <tollStatus>0</tollStatus>
            <turnlatlon>116.37664,39.90592</turnlatlon>
        </item>
        <item id='17'>
            <strguide>沿东长安街走0.8公里并调头,</strguide>
            <signage></signage>
            <streetName>东长安街</streetName>
            <nextStreetName>东长安街</nextStreetName>
            <tollStatus>0</tollStatus>
            <turnlatlon>116.39132,39.90617</turnlatlon>
        </item>
        <item id='18'>
            <strguide>沿东长安街走300米并右转到南池子大街,</strguide>
            <signage></signage>
            <streetName>东长安街</streetName>
            <nextStreetName>南池子大街</nextStreetName>
            <tollStatus>0</tollStatus>
            <turnlatlon>116.40024,39.90644</turnlatlon>
        </item>
        <item id='19'>
            <strguide>沿南池子大街走200米到达目的地。</strguide>
            <signage></signage>
            <streetName>南池子大街</streetName>
            <nextStreetName></nextStreetName>
            <tollStatus>0</tollStatus>
            <turnlatlon>116.3971,39.90649</turnlatlon>
        </item>
    </routes>
    <simple>
        <item id='0'>
            <strguide>从阜成门内大街出发，行驶到阜成门桥,进入西单北大街。</strguide>
            <streetNames>阜成门内大街</streetNames>
            <lastStreetName>阜成门桥</lastStreetName>
            <linkStreetName>西单北大街</linkStreetName>
            <signage>西二环/月坛北桥</signage>
            <tollStatus>0</tollStatus>
            <turnlatlon>116.35506,39.92249</turnlatlon>
            <streetLatLon>
                116.35506,39.92249;116.35487,39.92249;116.35487,39.92249;116.3548,39.92249;116.3548,39.92249;116.35462,39.92249;116.35441,39.92249;116.35441,39.92249;116.35402,39.92249;116.35402,39.92249;116.3536,39.92248;116.3536,39.92248;116.35261,39.92244;116.35261,39.92244;116.35227,39.92243;116.35227,39.92243;116.35202,39.92241;116.35202,39.92241;116.35199,39.92241;116.35118,39.9224;116.35118,39.9224;116.35109,39.9224;116.35109,39.9224;116.35092,39.92239;
            </streetLatLon>
            <streetDistance>353.0</streetDistance>
            <segmentNumber>0</segmentNumber>
        </item>
        <item id='1'>
            <strguide>
                沿西单北大街,东长安街,西长安街,广宁伯街,府右街,华远北街,西四南大街,西安门大街,阜成门南大街,辟才胡同,阜成门北大街行驶,进入南池子大街。
            </strguide>
            <streetNames>
                西单北大街,东长安街,西长安街,广宁伯街,府右街,华远北街,西四南大街,西安门大街,阜成门南大街,辟才胡同,
            </streetNames>
            <lastStreetName>阜成门北大街</lastStreetName>
            <linkStreetName>南池子大街</linkStreetName>
            <signage></signage>
            <tollStatus>0</tollStatus>
            <turnlatlon>116.40024,39.90644</turnlatlon>
            <streetLatLon>
                116.35092,39.92239;116.35053,39.92237;116.35053,39.92237;116.35028,39.92235;116.35028,39.92235;116.35014,39.92235;116.35014,39.92235;116.35007,39.92235;116.34998,39.92235;116.34998,39.92235;116.34981,39.92235;116.34981,39.92235;116.34957,39.92235;116.34957,39.92235;116.34949,39.92242;116.34946,39.92245;116.34944,39.92249;116.34943,39.92251;116.34943,39.92251;116.34942,39.92259;116.34941,39.92266;116.34941,39.92266;116.34937,39.92326;116.34937,39.92335;116.34937,39.92338;116.34937,39.9234;116.34938,39.92344;116.3494,39.92347;116.34942,39.92349;116.34945,39.92351;116.34949,39.92352;116.34953,39.92353;116.34957,39.92354;116.34961,39.92354;116.34964,39.92353;116.34968,39.92352;116.34973,39.92349;116.34977,39.92348;116.34977,39.92348;116.34978,39.92298;116.3498,39.92255;116.3498,39.92255;116.34981,39.92239;116.34981,39.92239;116.34981,39.92235;116.34981,39.92235;116.34982,39.92219;116.34983,39.92196;116.34983,39.92196;116.34986,39.92114;116.34986,39.92114;116.3499,39.92031;116.3499,39.92031;116.34991,39.92009;116.34991,39.92009;116.34992,39.91991;116.34992,39.91991;116.34994,39.91932;116.34994,39.91932;116.34997,39.91856;116.34997,39.91856;116.35002,39.91729;116.35002,39.91729;116.35003,39.91716;116.35003,39.91709;116.35003,39.91709;116.35004,39.91704;116.35004,39.91704;116.35005,39.91667;116.35005,39.9166;116.35005,39.9166;116.35006,39.91652;116.35012,39.91538;116.35012,39.91538;116.35012,39.91532;116.35012,39.91532;116.35012,39.91511;116.35013,39.91489;116.35013,39.91489;116.35016,39.91442;116.35016,39.91442;116.35016,39.91438;116.35018,39.91393;116.35018,39.91393;116.3502,39.91359;116.3502,39.91359;116.35023,39.91261;116.35023,39.91261;116.35024,39.9125;116.35024,39.9125;116.35039,39.91249;116.35047,39.91248;116.35053,39.91247;116.3507,39.91246;116.3507,39.91246;116.35078,39.91247;116.35078,39.91247;116.35085,39.91247;116.35085,39.91247;116.35134,39.91249;116.35134,39.91249;116.35174,39.91249;116.35174,39.91249;116.35195,39.9125;116.35253,39.91252;116.35253,39.91252;116.35281,39.91252;116.35281,39.91252;116.35324,39.91252;116.35324,39.91252;116.35353,39.91252;116.35353,39.91252;116.35374,39.91252;116.35374,39.91252;116.35394,39.91252;116.35394,39.91252;116.35463,39.91254;116.35463,39.91254;116.35483,39.91254;116.35483,39.91254;116.35504,39.91255;116.35504,39.91255;116.35528,39.91256;116.35558,39.91257;116.35558,39.91257;116.35574,39.91257;116.35574,39.91257;116.35705,39.91261;116.35705,39.91261;116.35712,39.91261;116.35712,39.91261;116.35721,39.91261;116.35721,39.91261;116.35732,39.91261;116.35742,39.91261;116.35742,39.91261;116.3575,39.91261;116.3575,39.91261;116.35761,39.91259;116.35761,39.91259;116.35776,39.91261;116.358,39.91261;116.358,39.91261;116.35884,39.91264;116.35939,39.91266;116.35939,39.91266;116.35955,39.91266;116.35955,39.91266;116.35968,39.91266;116.35968,39.91266;116.36153,39.9127;116.36153,39.9127;116.36257,39.91273;116.36257,39.91273;116.36275,39.91275;116.36275,39.91275;116.36295,39.91277;116.36295,39.91277;116.36379,39.91287;116.36379,39.91287;116.36502,39.91302;116.36605,39.91314;116.36605,39.91314;116.36605,39.91306;116.36605,39.91306;116.36605,39.9129;116.36605,39.91286;116.36605,39.91286;116.36604,39.91247;116.36604,39.91235;116.36604,39.91235;116.36529,39.91234;116.36523,39.91237;116.36521,39.91281;116.36518,39.91284;116.36507,39.91284;116.36507,39.91284;116.36518,39.91284;116.36521,39.91281;116.36523,39.91237;116.36529,39.91234;116.36604,39.91235;116.36604,39.91235;116.36604,39.91247;116.36605,39.91286;116.36605,39.91286;116.36605,39.9129;116.36605,39.91306;116.36605,39.91306;116.36605,39.91314;116.36605,39.91314;116.36677,39.91323;116.36737,39.91328;116.36737,39.91328;116.36752,39.91329;116.36752,39.91329;116.36761,39.91329;116.36765,39.9133;116.36765,39.9133;116.36762,39.91333;116.36757,39.91337;116.36757,39.91337;116.36756,39.91388;116.36756,39.91388;116.36753,39.91476;116.36752,39.91516;116.36752,39.91516;116.36751,39.91529;116.36751,39.91529;116.36749,39.91588;116.36749,39.91588;116.36748,39.91615;116.36747,39.91649;116.36746,39.91662;116.36746,39.91662;116.36746,39.91667;116.36746,39.91667;116.36744,39.91724;116.36744,39.91724;116.36744,39.91729;116.36744,39.91729;116.36744,39.91734;116.36744,39.91734;116.36741,39.91794;116.36741,39.91794;116.36741,39.91802;116.36741,39.91802;116.3674,39.91838;116.36739,39.91861;116.36739,39.91861;116.36738,39.91875;116.36738,39.91875;116.36736,39.91925;116.36736,39.91949;116.36736,39.91949;116.36735,39.91978;116.36734,39.92011;116.36734,39.92011;116.36733,39.92046;116.36732,39.92087;116.36732,39.92087;116.36731,39.92108;116.36731,39.92108;116.36736,39.92108;116.36736,39.92108;116.3674,39.92108;116.36805,39.9211;116.36815,39.9211;116.36815,39.9211;116.36836,39.92111;116.36836,39.92111;116.36866,39.92111;116.36866,39.92111;116.36878,39.92111;116.36878,39.92111;116.36914,39.92112;116.36914,39.92112;116.36959,39.92112;116.36959,39.92112;116.36962,39.92112;116.37048,39.92114;116.37048,39.92114;116.37108,39.92116;116.37108,39.92116;116.3713,39.92111;116.37231,39.92112;116.37231,39.92112;116.37266,39.92113;116.37266,39.92113;116.37362,39.92114;116.37362,39.92114;116.37392,39.92116;116.37392,39.92116;116.37409,39.92116;116.37409,39.92116;116.37423,39.92116;116.37423,39.92116;116.37465,39.92118;116.37465,39.92118;116.375,39.92118;116.375,39.92118;116.37512,39.92119;116.37512,39.92119;116.37536,39.9212;116.37536,39.9212;116.37555,39.9212;116.37555,39.9212;116.37555,39.92114;116.37555,39.92114;116.37553,39.92092;116.37553,39.92092;116.37553,39.92078;116.37553,39.92078;116.37558,39.92001;116.3756,39.91982;116.3756,39.91982;116.37569,39.91894;116.37571,39.91849;116.37571,39.91838;116.37571,39.91838;116.37574,39.91763;116.37574,39.91763;116.37575,39.91754;116.37575,39.91754;116.37576,39.9167;116.37576,39.9167;116.37575,39.91657;116.37575,39.91657;116.3756,39.91532;116.3756,39.91532;116.37559,39.91528;116.37559,39.91528;116.37559,39.91522;116.37555,39.91496;116.37555,39.91492;116.37555,39.91492;116.37552,39.91472;116.3755,39.91456;116.37548,39.9144;116.37546,39.91422;116.37546,39.91422;116.37546,39.91416;116.37546,39.91416;116.37546,39.914;116.37546,39.91378;116.3755,39.9132;116.37551,39.91301;116.37551,39.91301;116.37554,39.91259;116.37559,39.91167;116.37559,39.91167;116.37562,39.91111;116.37564,39.91089;116.37564,39.91089;116.37566,39.91025;116.37571,39.90977;116.37571,39.90977;116.37582,39.90931;116.37601,39.90855;116.37604,39.9084;116.3762,39.90781;116.37628,39.90752;116.37633,39.90729;116.37642,39.90692;116.37645,39.90679;116.37645,39.90679;116.37654,39.90643;116.37664,39.90592;116.37664,39.90592;116.37662,39.90584;116.37662,39.90576;116.37662,39.90576;116.37711,39.90576;116.37711,39.90576;116.37752,39.90576;116.37764,39.90576;116.37764,39.90576;116.37873,39.90581;116.38051,39.90585;116.38073,39.90585;116.38073,39.90585;116.38119,39.90588;116.38182,39.90591;116.38195,39.9059;116.38195,39.9059;116.38224,39.90591;116.38224,39.90591;116.38262,39.90592;116.38262,39.90592;116.38279,39.90593;116.38279,39.90593;116.38293,39.90593;116.38419,39.90596;116.38419,39.90596;116.38457,39.90597;116.38457,39.90597;116.38476,39.90597;116.38476,39.90597;116.38509,39.90598;116.38535,39.90599;116.38535,39.90599;116.3855,39.90599;116.3855,39.90599;116.38596,39.90601;116.38596,39.90601;116.38621,39.90601;116.38621,39.90601;116.38662,39.90602;116.38662,39.90602;116.38791,39.90605;116.38791,39.90605;116.38798,39.90605;116.38887,39.90609;116.38887,39.90609;116.38937,39.90611;116.38937,39.90611;116.38949,39.90611;116.38949,39.90611;116.38959,39.90612;116.38959,39.90612;116.39132,39.90617;116.39132,39.90617;116.39301,39.90621;116.39301,39.90621;116.39314,39.90623;116.39314,39.90623;116.39369,39.90625;116.39369,39.90625;116.3942,39.90626;116.3942,39.90626;116.39555,39.9063;116.39555,39.9063;116.39599,39.90631;116.39599,39.90631;116.39626,39.90632;116.39626,39.90632;116.39711,39.90634;116.39711,39.90634;116.39759,39.90636;116.39759,39.90636;116.39795,39.90637;116.39795,39.90637;116.39824,39.90638;116.39824,39.90638;116.39904,39.9064;116.39904,39.9064;116.39978,39.90641;116.39978,39.90641;116.40024,39.90644;116.40024,39.90644;116.40062,39.90645;116.40062,39.90645;116.40058,39.90652;116.40055,39.90659;116.40055,39.90659;116.40043,39.90659;116.40043,39.90659;116.40012,39.90658;116.40012,39.90658;116.39978,39.90657;116.39978,39.90657;116.39862,39.90654;116.39862,39.90654;116.39823,39.90652;116.39823,39.90652;116.39792,39.90652;116.39792,39.90652;116.3971,39.90649;
            </streetLatLon>
            <streetDistance>9079.0</streetDistance>
            <segmentNumber>1-18</segmentNumber>
        </item>
        <item id='2'>
            <strguide>沿南池子大街行驶到目的地。</strguide>
            <streetNames>南池子大街</streetNames>
            <lastStreetName></lastStreetName>
            <linkStreetName></linkStreetName>
            <signage></signage>
            <tollStatus>0</tollStatus>
            <turnlatlon>116.3971,39.90649</turnlatlon>
            <streetLatLon>
                116.3971,39.90649;116.39708,39.90706;116.39708,39.90706;116.39708,39.90722;116.39707,39.90724;116.39707,39.90724;116.39706,39.90735;116.39706,39.90735;116.39706,39.90739;116.39706,39.90742;116.39705,39.90762;116.39705,39.9079;116.39705,39.9079;116.39704,39.90811;116.39704,39.90811;116.397,39.90849;
            </streetLatLon>
            <streetDistance>222.0</streetDistance>
            <segmentNumber>19</segmentNumber>
        </item>
    </simple>
    <distance>9.65</distance>
    <duration>761.0</duration>
    <routelatlon>
        116.35506,39.92277;116.35506,39.92249;116.35441,39.92249;116.35402,39.92249;116.3536,39.92248;116.35261,39.92244;116.35227,39.92243;116.35202,39.92241;116.35092,39.92239;116.35092,39.92239;116.35028,39.92235;116.34998,39.92235;116.34981,39.92235;116.34957,39.92235;116.34944,39.92249;116.34943,39.92251;116.34941,39.92266;116.34938,39.92344;116.34942,39.92349;116.34949,39.92352;116.34957,39.92354;116.34973,39.92349;116.34977,39.92348;116.34977,39.92348;116.3498,39.92255;116.34981,39.92239;116.34981,39.92239;116.34981,39.92235;116.34981,39.92235;116.34983,39.92196;116.34986,39.92114;116.3499,39.92031;116.34991,39.92009;116.34992,39.91991;116.34994,39.91932;116.34997,39.91856;116.35002,39.91729;116.35003,39.91709;116.35004,39.91704;116.35005,39.9166;116.35012,39.91538;116.35013,39.91489;116.35016,39.91442;116.3502,39.91359;116.35024,39.9125;116.35024,39.9125;116.3507,39.91246;116.35078,39.91247;116.35085,39.91247;116.35134,39.91249;116.35174,39.91249;116.35324,39.91252;116.35463,39.91254;116.35558,39.91257;116.35574,39.91257;116.35705,39.91261;116.35712,39.91261;116.35712,39.91261;116.35721,39.91261;116.35721,39.91261;116.35742,39.91261;116.3575,39.91261;116.35761,39.91259;116.35939,39.91266;116.35955,39.91266;116.35968,39.91266;116.36153,39.9127;116.36257,39.91273;116.36275,39.91275;116.36295,39.91277;116.36379,39.91287;116.36605,39.91314;116.36605,39.91314;116.36605,39.91306;116.36605,39.91286;116.36604,39.91247;116.36604,39.91235;116.36604,39.91235;116.36523,39.91237;116.36518,39.91284;116.36507,39.91284;116.36506,39.91277;116.36521,39.91281;116.36529,39.91234;116.36604,39.91235;116.36604,39.91235;116.36605,39.91286;116.36605,39.9129;116.36605,39.91306;116.36605,39.91306;116.36605,39.91314;116.36737,39.91328;116.36737,39.91328;116.36752,39.91329;116.36752,39.91329;116.36765,39.9133;116.36762,39.91333;116.36757,39.91337;116.36752,39.91516;116.36751,39.91529;116.36749,39.91588;116.36746,39.91662;116.36746,39.91667;116.36744,39.91724;116.36744,39.91724;116.36744,39.91729;116.36744,39.91729;116.36739,39.91861;116.36738,39.91875;116.36734,39.92011;116.36731,39.92108;116.36731,39.92108;116.36836,39.92111;116.37048,39.92114;116.37108,39.92116;116.3713,39.92111;116.37392,39.92116;116.37465,39.92118;116.37512,39.92119;116.37555,39.9212;116.37555,39.9212;116.37555,39.92114;116.37553,39.92092;116.37553,39.92078;116.37506,39.92076;116.3756,39.91982;116.37571,39.91838;116.37574,39.91763;116.37575,39.91754;116.37576,39.9167;116.37575,39.91657;116.3756,39.91532;116.37559,39.91528;116.37555,39.91492;116.37546,39.91422;116.37551,39.91301;116.37564,39.91089;116.37571,39.90977;116.37645,39.90679;116.37664,39.90592;116.37664,39.90592;116.37662,39.90576;116.37711,39.90576;116.38182,39.90591;116.38195,39.9059;116.38419,39.90596;116.38457,39.90597;116.38476,39.90597;116.3855,39.90599;116.38887,39.90609;116.38937,39.90611;116.38949,39.90611;116.38959,39.90612;116.38959,39.90612;116.39132,39.90617;116.39132,39.90617;116.3942,39.90626;116.39759,39.90636;116.40024,39.90644;116.40024,39.90644;116.40062,39.90645;116.40055,39.90659;116.40043,39.90659;116.40012,39.90658;116.39978,39.90657;116.39862,39.90654;116.39823,39.90652;116.39792,39.90652;116.39792,39.90652;116.3971,39.90649;116.3971,39.90649;116.39707,39.90724;116.39706,39.90735;116.39705,39.9079;116.397,39.90849;116.39751,39.90854;
    </routelatlon>
    <mapinfo>
        <center>116.375,39.91465</center>
        <scale>10</scale>
    </mapinfo>
</result>